%nproc=18
%mem=50GB
%chk=5J-TPE-td.chk
#p td=(nstates=60) iop(8/11=1) scf=(maxcycles=3000) b3lyp/genecp geom=connectivity

5j

2 1
Au    0.902243    1.180828    0.314477
Au    1.739602    -1.591778    1.065630
Au    -1.821306    1.092224    1.459001
Au    -3.683280    3.792417    0.819085
P    2.259495    3.063229    1.038170
P    -2.096557    0.512981    3.819798
P    2.186944    -2.206948    3.395249
P    -2.243785    5.683093    0.923474
C    2.762313    4.212391    -0.308777
C    0.715420    0.161472    4.161900
H    0.755109    1.043760    4.813059
H    0.808178    0.527013    3.132365
C    3.081681    3.649930    -1.554954
H    2.940478    2.585045    -1.716827
C    1.428806    4.080893    2.368339
H    1.558226    3.477109    3.274541
H    2.009393    4.995784    2.535201
C    3.924211    -2.693797    3.742641
C    -3.545526    -0.543155    4.215725
C    -3.291360    6.513553    -1.546210
H    -3.874459    5.598204    -1.506189
C    6.604472    -3.340024    4.254279
H    7.646109    -3.573830    4.452584
C    -4.514711    -0.779893    3.230439
H    -4.412505    -0.324940    2.249754
C    2.956778    5.589877    -0.117661
H    2.728566    6.057039    0.835183
C    -9.939990    -1.285442    -0.157357
C    1.942782    -0.711566    4.484887
H    1.951032    -1.013535    5.538661
H    2.847826    -0.112554    4.331212
C    -0.068004    4.398647    2.212071
H    -0.399503    4.859901    3.150062
H    -0.625997    3.460394    2.116043
C    -8.035713    0.225735    0.501863
H    -7.653144    0.141075    -0.508762
C    0.810962    -4.624819    3.272357
H    1.089682    -4.594335    2.223319
C    3.861221    2.652409    1.852623
C    -0.643299    -0.535700    4.323724
H    -0.783636    -0.900198    5.347904
H    -0.704663    -1.415030    3.673230
C    -0.426733    5.309854    1.030411
H    -0.175594    4.821676    0.082123
H    0.136972    6.249800    1.059856
C    -7.841653    1.176038    2.740359
C    1.168108    -3.560267    4.113919
C    -1.656654    8.013197    -0.572829
H    -0.981985    8.285920    0.234138
C    3.465489    6.382779    -1.148081
H    3.617761    7.445840    -0.983125
C    4.335596    -3.038870    5.041609
H    3.619179    -3.070272    5.857680
C    -3.439045    7.382176    -2.630716
H    -4.135610    7.131915    -3.425350
C    -2.395885    6.819716    -0.510671
C    -1.681598    7.477874    3.073375
H    -0.635713    7.438891    2.783411
C    -10.408885    -2.542832    0.107757
C    0.093121    -4.714545    5.964562
H    -0.183671    -4.745232    7.014654
C    -10.152449    -0.611379    -1.475186
C    -10.582373    0.726451    -1.537778
H    -10.785353    1.262427    -0.615031
C    -10.767284    1.365521    -2.763687
H    -11.121803    2.392750    -2.786142
C    -10.505103    0.688176    -3.956856
H    -10.652953    1.183681    -4.912653
C    -10.057012    -0.634648    -3.911030
H    -9.854500    -1.173372    -4.833561
C    -9.881307    -1.275811    -2.684540
H    -9.540297    -2.305997    -2.656911
C    6.199856    -3.016361    2.958629
H    6.918892    -3.009601    2.144637
C    0.799333    -3.617346    5.468421
H    1.061351    -2.815042    6.150942
C    -12.588515    -2.593201    -1.170761
H    -12.760049    -1.561588    -0.879808
C    -11.228433    -4.585486    -1.119027
H    -10.336466    -5.110047    -0.787514
C    3.597663    4.441628    -2.581785
H    3.847733    3.986849    -3.535278
C    3.791417    5.809813    -2.379053
H    4.195528    6.427602    -3.175947
C    -11.411439    -3.239302    -0.753632
C    -10.876011    -3.944789    2.155593
H    -11.938794    -3.811484    1.974474
C    5.490275    1.006677    2.583080
H    5.804894    -0.029267    2.659140
C    -3.987559    6.799294    2.793960
H    -4.745156    6.216752    2.275890
C    -5.629605    -1.572559    3.517243
H    -6.385476    -1.736691    2.756583
C    -1.804550    8.876320    -1.657492
H    -1.235161    9.800817    -1.692869
C    -2.644391    6.721027    2.387416
C    -4.358544    7.624699    3.856595
H    -5.401864    7.682750    4.153186
C    -9.194526    -0.476688    0.851715
C    -9.667299    -0.326755    2.170917
H    -10.574552    -0.840717    2.471317
C    5.669362    -3.356616    5.293796
H    5.978804    -3.617522    6.301977
C    -0.246170    -5.772841    5.118824
H    -0.787286    -6.629463    5.510502
C    -2.695987    8.561438    -2.688034
H    -2.815025    9.239941    -3.527876
C    -4.821391    -1.897798    5.774716
H    -4.943310    -2.323481    6.766964
C    -13.331020    -4.591968    -2.315987
H    -14.071534    -5.112989    -2.916448
C    -9.010856    0.479104    3.089876
H    -9.414962    0.594549    4.092870
C    -2.054015    8.295478    4.142065
H    -1.298580    8.874717    4.665325
C    -5.781281    -2.133843    4.785194
H    -6.653006    -2.744731    5.002163
C    -3.711165    -1.103028    5.494837
H    -2.987560    -0.907346    6.281566
C    -13.537421    -3.262041    -1.942769
H    -14.443542    -2.745131    -2.246975
C    -8.581641    -3.548058    1.528261
H    -7.855013    -3.105102    0.853089
C    0.115416    -5.727069    3.771030
H    -0.137036    -6.546958    3.105936
C    -3.391935    8.372712    4.533557
H    -3.680406    9.014606    5.360884
C    -12.171742    -5.251155    -1.900542
H    -12.005416    -6.288405    -2.179386
C    -2.152713    1.894552    5.032925
C    -2.828496    3.073046    4.676527
H    -3.266030    3.166552    3.685314
C    -2.943797    4.126821    5.584861
H    -3.469153    5.031885    5.294174
C    -9.950299    -3.331849    1.292697
C    -10.448862    -4.716216    3.236010
H    -11.182888    -5.169901    3.896436
C    -1.587849    1.797855    6.315535
H    -1.060699    0.899512    6.622341
C    -2.378605    4.019463    6.857514
H    -2.465867    4.840094    7.563795
C    4.281631    1.319241    1.953506
H    3.670161    0.528066    1.527036
C    -8.152901    -4.335084    2.597978
H    -7.088788    -4.503001    2.746840
C    -9.084754    -4.916608    3.461800
H    -8.753862    -5.532417    4.294075
C    6.290268    2.021482    3.108916
H    7.230453    1.771938    3.591025
C    4.679369    3.669408    2.375138
H    4.390596    4.712454    2.283255
C    5.884730    3.354589    3.000417
H    6.509330    4.149644    3.397549
C    4.863925    -2.694052    2.700968
H    4.564203    -2.447825    1.686731
C    -1.699291    2.855036    7.220292
H    -1.257844    2.766082    8.208941
C    -7.336506    1.034563    1.414202
C    -5.130458    2.412830    0.898337
C    -6.144933    1.737036    1.064645
Au    -0.757409    -0.918881    -0.433073
Au    -1.611257    1.847709    -1.164647
Au    1.931177    -0.901562    -1.571214
Au    3.465226    -4.096825    -0.879611
P    -2.247773    -2.650007    -1.257274
P    2.239123    -0.339450    -3.922563
P    -1.945872    2.537826    -3.497023
P    1.889247    -5.868144    -0.977610
C    -2.957843    -3.738446    0.045098
C    -0.547990    0.130898    -4.285736
H    -0.616649    -0.743232    -4.945757
H    -0.659095    -0.239237    -3.259865
C    -2.521628    -3.617653    1.371490
H    -1.766260    -2.877302    1.621035
C    -1.475411    -3.806943    -2.504168
H    -1.479760    -3.249573    -3.448229
H    -2.140310    -4.669534    -2.638196
C    -3.638274    3.141403    -3.893774
C    3.748619    0.645586    -4.280577
C    2.991346    -6.945877    1.362844
H    3.725711    -6.150090    1.270841
C    -6.237608    4.036511    -4.457315
H    -7.242805    4.385207    -4.676268
C    4.760871    0.712084    -3.310354
H    4.645413    0.182941    -2.368229
C    -3.949406    -4.683741    -0.267655
H    -4.325003    -4.769770    -1.283690
C    9.850401    0.588966    0.616057
C    -1.744168    1.049322    -4.605498
H    -1.735717    1.367757    -5.654444
H    -2.669068    0.477427    -4.466194
C    -0.036864    -4.273737    -2.237848
H    0.324380    -4.736366    -3.164426
H    0.599944    -3.400143    -2.057998
C    7.888401    -0.730034    -0.273153
H    7.447509    -0.717230    0.718529
C    -0.427847    4.870402    -3.302340
H    -0.714823    4.834762    -2.256546
C    -3.715118    -2.009516    -2.163526
C    0.838840    0.775676    -4.436824
H    0.997137    1.130858    -5.461510
H    0.931992    1.652748    -3.787745
C    0.135648    -5.264211    -1.076159
H    -0.073355    -4.781459    -0.115379
H    -0.558212    -6.108460    -1.164854
C    7.783759    -1.478890    -2.595041
C    -0.836722    3.844848    -4.168078
C    1.009905    -8.083557    0.555946
H    0.207978    -8.194170    -0.168645
C    -4.480616    -5.501922    0.728419
H    -5.250483    -6.226233    0.478227
C    -3.947239    3.678788    -5.154921
H    -3.179596    3.771666    -5.917270
C    3.094432    -7.870040    2.405354
H    3.908754    -7.786224    3.118938
C    1.947587    -7.044423    0.429806
C    1.118729    -7.607437    -3.103913
H    0.096826    -7.529290    -2.744252
C    10.361271    1.853126    0.501977
C    0.316932    4.976019    -5.986380
H    0.604084    5.012671    -7.033555
C    10.036825    -0.257270    1.834325
C    10.336594    -1.627097    1.715574
H    10.457803    -2.060689    0.727480
C    10.501510    -2.429400    2.845228
H    10.760843    -3.478168    2.725249
C    10.349558    -1.885881    4.123228
H    10.488833    -2.507028    5.004208
C    10.030124    -0.532018    4.258835
H    9.908898    -0.097364    5.247700
C    9.877075    0.270406    3.129288
H    9.649502    1.325428    3.245124
C    -5.937998    3.508676    -3.200567
H    -6.704058    3.443864    -2.433071
C    -0.450816    3.908485    -5.517954
H    -0.748518    3.134651    -6.218688
C    12.552947    1.680774    1.745569
H    12.688989    0.689351    1.324641
C    11.253273    3.702273    1.963951
H    10.375172    4.290563    1.711500
C    -3.057481    -4.435945    2.369375
H    -2.714972    -4.329453    3.393825
C    -4.033538    -5.379852    2.047785
H    -4.452278    -6.015982    2.822595
C    11.391834    2.408172    1.430155
C    10.878488    3.469337    -1.366028
H    11.935970    3.285872    -1.198188
C    -5.493679    -0.361122    -2.293472
H    -5.964699    0.532690    -1.899900
C    3.465321    -7.030403    -2.970021
H    4.279380    -6.487585    -2.496278
C    5.929019    1.439389    -3.556301
H    6.709655    1.477757    -2.803682
C    1.113958    -9.002115    1.600045
H    0.389067    -9.806773    1.684697
C    2.156532    -6.901480    -2.474854
C    3.729435    -7.855303    -4.065091
H    4.747486    -7.953486    -4.430931
C    9.098960    -0.065084    -0.497099
C    9.633768    -0.116324    -1.799926
H    10.577973    0.378305    -2.004138
C    -5.240543    4.119600    -5.434049
H    -5.468605    4.532598    -6.412640
C    0.704812    5.997132    -5.116742
H    1.295252    6.830668    -5.486331
C    2.157864    -8.897304    2.524777
H    2.242177    -9.619898    3.331364
C    5.093456    2.038834    -5.747009
H    5.223763    2.547256    -6.698411
C    13.366327    3.495927    3.124468
H    14.127892    3.914888    3.776233
C    8.995971    -0.805091    -2.822075
H    9.450834    -0.851459    -3.808757
C    1.384262    -8.423874    -4.204224
H    0.571912    -8.963490    -4.682628
C    6.094035    2.104796    -4.771660
H    7.003195    2.669400    -4.958353
C    3.927990    1.311647    -5.505901
H    3.169755    1.258452    -6.282065
C    13.529236    2.218821    2.582853
H    14.422293    1.641791    2.806991
C    8.568809    3.068322    -0.796126
H    7.825192    2.573731    -0.177852
C    0.330893    5.942290    -3.773236
H    0.628527    6.729298    -3.087767
C    2.689205    -8.551445    -4.684842
H    2.894461    -9.192700    -5.537104
C    12.223764    4.235890    2.811078
H    12.092289    5.234135    3.220374
C    2.240959    -1.722644    -5.133303
C    2.735946    -2.971880    -4.726565
H    3.071836    -3.112240    -3.702070
C    2.800064    -4.035957    -5.628713
H    3.183788    -4.997378    -5.299581
C    9.929952    2.788122    -0.582776
C    10.480181    4.371851    -2.351696
H    11.230924    4.877854    -2.952712
C    1.804214    -1.562464    -6.459063
H    1.415683    -0.608332    -6.802854
C    2.364618    -3.865552    -6.944265
H    2.412356    -4.693434    -7.645878
C    -4.348153    -0.856950    -1.670732
H    -3.946820    -0.340491    -0.803225
C    8.169411    3.984741    -1.770198
H    7.111963    4.201135    -1.903649
C    9.123576    4.634623    -2.557647
H    8.815520    5.352227    -3.313744
C    -6.023775    -1.002573    -3.415723
H    -6.924522    -0.619218    -3.885713
C    -4.250739    -2.647372    -3.296352
H    -3.788326    -3.540597    -3.703544
C    -5.396669    -2.144386    -3.916882
H    -5.799880    -2.651543    -4.789000
C    -4.644049    3.061643    -2.919354
H    -4.422511    2.657326    -1.936496
C    1.865241    -2.628367    -7.357433
H    1.524523    -2.491278    -8.379810
C    7.208405    -1.420552    -1.291703
C    4.938105    -2.748381    -0.955321
C    5.977510    -2.099474    -1.057999
H    -6.271980    2.288786    3.405076
N    -7.221112    2.024077    3.638858
H    -7.372395    1.834009    4.620206
H    6.222132    -2.492970    -3.427349
N    7.186285    -2.229624    -3.588837
H    7.404711    -1.985935    -4.544987

1 5 1.0 161 1.0
2 7 1.0 163 1.0
3 6 1.0 162 1.0
4 8 1.0 159 1.0
5 9 1.0 15 1.0 39 1.0
6 19 1.0 40 1.0 130 1.0
7 18 1.0 29 1.0 47 1.0
8 43 1.0 56 1.0 96 1.0
9 13 1.5 26 1.5
10 11 1.0 12 1.0 29 1.0 40 1.0
11
12
13 14 1.0 81 1.5
14
15 16 1.0 17 1.0 32 1.0
16
17
18 52 1.5 154 1.5
19 24 1.5 118 1.5
20 21 1.0 54 1.5 56 1.5
21
22 23 1.0 73 1.5 102 1.5
23
24 25 1.0 92 1.5
25
26 27 1.0 50 1.5
27
28 59 2.0 62 1.0 99 1.0
29 30 1.0 31 1.0
30
31
32 33 1.0 34 1.0 43 1.0
33
34
35 36 1.0 99 1.5 158 1.5
36
37 38 1.0 47 1.5 124 1.5
38
39 142 1.5 150 1.5
40 41 1.0 42 1.0
41
42
43 44 1.0 45 1.0
44
45
46 112 1.5 158 1.5 322 1.0
47 75 1.5
48 49 1.0 56 1.5 94 1.5
49
50 51 1.0 83 1.5
51
52 53 1.0 102 1.5
53
54 55 1.0 106 1.5
55
56
57 58 1.0 96 1.5 114 1.5
58
59 85 1.0 135 1.0
60 61 1.0 75 1.5 104 1.5
61
62 63 1.5 71 1.5
63 64 1.0 65 1.5
64
65 66 1.0 67 1.5
66
67 68 1.0 69 1.5
68
69 70 1.0 71 1.5
70
71 72 1.0
72
73 74 1.0 154 1.5
74
75 76 1.0
76
77 78 1.0 85 1.5 120 1.5
78
79 80 1.0 85 1.5 128 1.5
80
81 82 1.0 83 1.5
82
83 84 1.0
84
85
86 87 1.0 135 1.5 136 1.5
87
88 89 1.0 142 1.5 148 1.5
89
90 91 1.0 96 1.5 97 1.5
91
92 93 1.0 116 1.5
93
94 95 1.0 106 1.5
95
96
97 98 1.0 126 1.5
98
99 100 1.5
100 101 1.0 112 1.5
101
102 103 1.0
103
104 105 1.0 124 1.5
105
106 107 1.0
107
108 109 1.0 116 1.5 118 1.5
109
110 111 1.0 120 1.5 128 1.5
111
112 113 1.0
113
114 115 1.0 126 1.5
115
116 117 1.0
117
118 119 1.0
119
120 121 1.0
121
122 123 1.0 135 1.5 144 1.5
123
124 125 1.0
125
126 127 1.0
127
128 129 1.0
129
130 131 1.5 138 1.5
131 132 1.0 133 1.5
132
133 134 1.0 140 1.5
134
135
136 137 1.0 146 1.5
137
138 139 1.0 156 1.5
139
140 141 1.0 156 1.5
141
142 143 1.0
143
144 145 1.0 146 1.5
145
146 147 1.0
147
148 149 1.0 152 1.5
149
150 151 1.0 152 1.5
151
152 153 1.0
153
154 155 1.0
155
156 157 1.0
157
158 160 1.5
159 160 3.0
160
161 165 1.0
162 167 1.0
163 166 1.0
164 168 1.0 319 1.0
165 169 1.0 175 1.0 199 1.0
166 179 1.0 200 1.0 290 1.0
167 178 1.0 189 1.0 207 1.0
168 203 1.0 216 1.0 256 1.0
169 173 1.5 186 1.5
170 171 1.0 172 1.0 189 1.0 200 1.0
171
172
173 174 1.0 241 1.5
174
175 176 1.0 177 1.0 192 1.0
176
177
178 212 1.5 314 1.5
179 184 1.5 278 1.5
180 181 1.0 214 1.5 216 1.5
181
182 183 1.0 233 1.5 262 1.5
183
184 185 1.0 252 1.5
185
186 187 1.0 210 1.5
187
188 219 2.0 222 1.0 259 1.0
189 190 1.0 191 1.0
190
191
192 193 1.0 194 1.0 203 1.0
193
194
195 196 1.0 259 1.5 318 1.5
196
197 198 1.0 207 1.5 284 1.5
198
199 302 1.5 310 1.5
200 201 1.0 202 1.0
201
202
203 204 1.0 205 1.0
204
205
206 272 1.5 318 1.5 325 1.5
207 235 1.5
208 209 1.0 216 1.5 254 1.5
209
210 211 1.0 243 1.5
211
212 213 1.0 262 1.5
213
214 215 1.0 266 1.5
215
216
217 218 1.0 256 1.5 274 1.5
218
219 245 1.0 295 1.0
220 221 1.0 235 1.5 264 1.5
221
222 223 1.5 231 1.5
223 224 1.0 225 1.5
224
225 226 1.0 227 1.5
226
227 228 1.0 229 1.5
228
229 230 1.0 231 1.5
230
231 232 1.0
232
233 234 1.0 314 1.5
234
235 236 1.0
236
237 238 1.0 245 1.5 280 1.5
238
239 240 1.0 245 1.5 288 1.5
240
241 242 1.0 243 1.5
242
243 244 1.0
244
245
246 247 1.0 295 1.5 296 1.5
247
248 249 1.0 302 1.5 308 1.5
249
250 251 1.0 256 1.5 257 1.5
251
252 253 1.0 276 1.5
253
254 255 1.0 266 1.5
255
256
257 258 1.0 286 1.5
258
259 260 1.5
260 261 1.0 272 1.5
261
262 263 1.0
263
264 265 1.0 284 1.5
265
266 267 1.0
267
268 269 1.0 276 1.5 278 1.5
269
270 271 1.0 280 1.5 288 1.5
271
272 273 1.0
273
274 275 1.0 286 1.5
275
276 277 1.0
277
278 279 1.0
279
280 281 1.0
281
282 283 1.0 295 1.5 304 1.5
283
284 285 1.0
285
286 287 1.0
287
288 289 1.0
289
290 291 1.5 298 1.5
291 292 1.0 293 1.5
292
293 294 1.0 300 1.5
294
295
296 297 1.0 306 1.5
297
298 299 1.0 316 1.5
299
300 301 1.0 316 1.5
301
302 303 1.0
303
304 305 1.0 306 1.5
305
306 307 1.0
307
308 309 1.0 312 1.5
309
310 311 1.0 312 1.5
311
312 313 1.0
313
314 315 1.0
315
316 317 1.0
317
318 320 1.5
319 320 3.0
320
321 322 1.0
322 323 1.0
323
324 325 1.0
325 326 1.0
326

C H N P 0
6-31G(d)
****
Au 0
lanl2dz
****

Au 0
lanl2dz
Au 0
lanl2dz
