%nproc=3
%mem=10261193KB
%chk=CH4_Gaussian_e5cVJfm2bX.chk
#p  genecp b3lyp force

Molecule Name; ['6-31g(d)', '6-31g(d)', '6-31g(d)', '6-31g(d)', '6-31g(d)']; ['', '', '', '', '']

0 1
C            0.000000   0.000008   0.000000 
H            0.832655   0.708831   0.000000 
H           -0.611697   0.156212   0.892844 
H           -0.611697   0.156212  -0.892844 
H            0.390738  -1.021304   0.000000 

1 0
6-31g(d)
****
2 0
6-31g(d)
****
3 0
6-31g(d)
****
4 0
6-31g(d)
****
5 0
6-31g(d)
****





